LTspice 24.0.9 for Windows
Circuit: * J:\UTN\Potencia\Proyecto\1C\simulacion\Proyecto-1C\simulacion.asc
Start Time: Sun Jul  7 18:11:15 2024
Questionable use of curly braces in "b§e_abmgate yint 0 v={if(v(a)>{{vthresh}}|v(b)>{{vthresh}}|v(c)>{{vthresh}},{{vdd}},{{vss}})}"
    Error: undefined symbol in: "if([v](a)>((vthresh))|v(b)>((vthresh))|v(c)>((vthresh)),((vdd)),((vss)))"
Questionable use of curly braces in "b§e_abmgate yint 0 v={if(v(a)>{{vthresh}},{{vdd}},{{vss}})}"
    Error: undefined symbol in: "if([v](a)>((vthresh)),((vdd)),((vss)))"
solver = Normal
Maximum thread count: 12
tnom = 27
temp = 27
method = modified trap
WARNING: Node NC_02 is floating.

WARNING: Less than two connections to node nc_01.  This node is used by r1.
WARNING: Less than two connections to node nc_02.  This node is used by c2.
Direct Newton iteration for .op point succeeded.
Total elapsed time: 13.286 seconds.

